<?xml version="1.0" encoding="UTF-8"?>

<!-- generated on Wed May 20 11:29:43 2020 by SUMO netconvert Version 0.32.0
<?xml version="1.0" encoding="UTF-8"?>

<configuration xmlns:xsi="http://www.w3.org/2001/XMLSchema-instance" xsi:noNamespaceSchemaLocation="http://sumo.dlr.de/xsd/netconvertConfiguration.xsd">

    <input>
        <sumo-net-file value="map.net.xml"/>
    </input>

    <output>
        <plain-output-prefix value="map"/>
        <output.street-names value="true"/>
    </output>

    <processing>
        <no-turnarounds value="true"/>
        <offset.disable-normalization value="true"/>
        <lefthand value="true"/>
        <junctions.corner-detail value="0"/>
        <rectangular-lane-cut value="false"/>
        <walkingareas value="false"/>
    </processing>

</configuration>
-->

<connections version="0.27" xmlns:xsi="http://www.w3.org/2001/XMLSchema-instance" xsi:noNamespaceSchemaLocation="http://sumo.dlr.de/xsd/connections_file.xsd">
    <connection from="-121645907#0" to="121645907#0" fromLane="1" toLane="1"/>

    <connection from="-121645907#1" to="-121645907#0" fromLane="0" toLane="0"/>
    <connection from="-121645907#1" to="-121645907#0" fromLane="1" toLane="1"/>
    <connection from="-121645907#1" to="370660357" fromLane="1" toLane="0"/>
    <connection from="-121645907#1" to="121645907#1" fromLane="1" toLane="1"/>

    <connection from="-121645907#2" to="-121645907#1" fromLane="0" toLane="0"/>
    <connection from="-121645907#2" to="-121645907#1" fromLane="1" toLane="1"/>

    <connection from="-121646136#0" to="-327199417" fromLane="0" toLane="0"/>
    <connection from="-121646136#0" to="-327199417" fromLane="1" toLane="1"/>
    <connection from="-121646136#0" to="121646136#0" fromLane="1" toLane="1"/>

    <connection from="-121646136#1" to="-121646136#0" fromLane="0" toLane="0"/>
    <connection from="-121646136#1" to="-121646136#0" fromLane="1" toLane="1"/>
    <connection from="-121646136#1" to="371064497" fromLane="1" toLane="0"/>
    <connection from="-121646136#1" to="121646136#1" fromLane="1" toLane="1"/>

    <connection from="-121646136#2" to="-121646136#1" fromLane="0" toLane="0"/>
    <connection from="-121646136#2" to="-121646136#1" fromLane="1" toLane="1"/>
    <connection from="-121646136#2" to="371064291" fromLane="1" toLane="0"/>
    <connection from="-121646136#2" to="121646136#2" fromLane="1" toLane="1"/>

    <connection from="-133654053#0" to="255690850#0" fromLane="0" toLane="0"/>
    <connection from="-133654053#0" to="255690850#0" fromLane="0" toLane="1"/>
    <connection from="-133654053#0" to="133654053#0" fromLane="0" toLane="0"/>

    <connection from="-133654053#1" to="-255690866#1" fromLane="0" toLane="0"/>
    <connection from="-133654053#1" to="-133654053#0" fromLane="0" toLane="0"/>
    <connection from="-133654053#1" to="133654053#1" fromLane="0" toLane="0"/>

    <connection from="-133654053#2" to="-133654053#1" fromLane="0" toLane="0"/>
    <connection from="-133654053#2" to="297084695" fromLane="0" toLane="0"/>
    <connection from="-133654053#2" to="133654053#2" fromLane="0" toLane="0"/>

    <connection from="-133654053#3" to="-297071232" fromLane="0" toLane="0"/>
    <connection from="-133654053#3" to="-133654053#2" fromLane="0" toLane="0"/>
    <connection from="-133654053#3" to="133654053#3" fromLane="0" toLane="0"/>

    <connection from="-133654053#4" to="255690862#0" fromLane="0" toLane="0"/>
    <connection from="-133654053#4" to="-133654053#3" fromLane="0" toLane="0"/>
    <connection from="-133654053#4" to="255761991" fromLane="0" toLane="0"/>
    <connection from="-133654053#4" to="133654053#4" fromLane="0" toLane="0"/>

    <connection from="-133654053#5" to="255690895#0" fromLane="0" toLane="0"/>
    <connection from="-133654053#5" to="-133654053#4" fromLane="0" toLane="0"/>
    <connection from="-133654053#5" to="133654053#5" fromLane="0" toLane="0"/>

    <connection from="-133654053#6" to="255690872#0" fromLane="0" toLane="0"/>
    <connection from="-133654053#6" to="-133654053#5" fromLane="0" toLane="0"/>
    <connection from="-133654053#6" to="133654053#6" fromLane="0" toLane="0"/>

    <connection from="-133654053#7" to="-255760164#1" fromLane="0" toLane="0"/>
    <connection from="-133654053#7" to="-133654053#6" fromLane="0" toLane="0"/>
    <connection from="-133654053#7" to="133654053#7" fromLane="0" toLane="0"/>

    <connection from="-133654053#8" to="-133654053#7" fromLane="0" toLane="0"/>
    <connection from="-133654053#8" to="-255761991" fromLane="0" toLane="0"/>
    <connection from="-133654053#8" to="133654053#8" fromLane="0" toLane="0"/>

    <connection from="-133658527#0" to="133658527#0" fromLane="0" toLane="0"/>

    <connection from="-133658527#1" to="-133658527#0" fromLane="0" toLane="0"/>
    <connection from="-133658527#1" to="-255761652" fromLane="0" toLane="0"/>
    <connection from="-133658527#1" to="133658527#1" fromLane="0" toLane="0"/>

    <connection from="-133658527#2" to="-133658527#1" fromLane="0" toLane="0"/>
    <connection from="-133658527#2" to="-255761650#2" fromLane="0" toLane="0"/>
    <connection from="-133658527#2" to="133658527#2" fromLane="0" toLane="0"/>

    <connection from="-133658527#3" to="-255761646" fromLane="0" toLane="0"/>
    <connection from="-133658527#3" to="-133658527#2" fromLane="0" toLane="0"/>
    <connection from="-133658527#3" to="133658527#3" fromLane="0" toLane="0"/>

    <connection from="-133658527#4" to="-133658527#3" fromLane="0" toLane="0"/>
    <connection from="-133658527#4" to="255761649" fromLane="0" toLane="0"/>
    <connection from="-133658527#4" to="133658527#4" fromLane="0" toLane="0"/>

    <connection from="-133658528#0" to="255690855#0" fromLane="0" toLane="0"/>
    <connection from="-133658528#0" to="-133654053#8" fromLane="0" toLane="0"/>
    <connection from="-133658528#0" to="-255690850#1" fromLane="0" toLane="1"/>
    <connection from="-133658528#0" to="133658528#0" fromLane="0" toLane="0"/>

    <connection from="-133658528#1" to="336675922#0" fromLane="0" toLane="0"/>
    <connection from="-133658528#1" to="-133658528#0" fromLane="0" toLane="0"/>
    <connection from="-133658528#1" to="-133658527#4" fromLane="0" toLane="0"/>
    <connection from="-133658528#1" to="133658528#1" fromLane="0" toLane="0"/>

    <connection from="-133658528#2" to="-401433601#1" fromLane="0" toLane="0"/>
    <connection from="-133658528#2" to="-133658528#1" fromLane="0" toLane="0"/>
    <connection from="-133658528#2" to="133658528#2" fromLane="0" toLane="0"/>

    <connection from="-133658752#0" to="-133658528#2" fromLane="0" toLane="0"/>
    <connection from="-133658752#0" to="133658752#0" fromLane="0" toLane="0"/>

    <connection from="-133658752#1" to="-133658752#0" fromLane="0" toLane="0"/>
    <connection from="-133658752#1" to="133658873#1" fromLane="0" toLane="0"/>
    <connection from="-133658752#1" to="-133658873#0" fromLane="0" toLane="0"/>
    <connection from="-133658752#1" to="133658752#1" fromLane="0" toLane="0"/>

    <connection from="-133658872#0" to="133658872#0" fromLane="0" toLane="0"/>

    <connection from="-133658872#1" to="-133658872#0" fromLane="0" toLane="0"/>
    <connection from="-133658872#1" to="133658872#1" fromLane="0" toLane="0"/>

    <connection from="-133658872#2" to="-133658873#1" fromLane="0" toLane="0"/>
    <connection from="-133658872#2" to="-133658872#1" fromLane="0" toLane="0"/>
    <connection from="-133658872#2" to="133658872#2" fromLane="0" toLane="0"/>

    <connection from="-133658873#0" to="133658873#0" fromLane="0" toLane="0"/>

    <connection from="-133658873#1" to="-133658873#0" fromLane="0" toLane="0"/>
    <connection from="-133658873#1" to="133658752#1" fromLane="0" toLane="0"/>
    <connection from="-133658873#1" to="-133658752#0" fromLane="0" toLane="0"/>
    <connection from="-133658873#1" to="133658873#1" fromLane="0" toLane="0"/>

    <connection from="-255690850#0" to="133654053#0" fromLane="0" toLane="0"/>
    <connection from="-255690850#0" to="255690850#0" fromLane="1" toLane="1"/>

    <connection from="-255690850#1" to="-255690850#0" fromLane="0" toLane="0"/>
    <connection from="-255690850#1" to="255690852#0" fromLane="0" toLane="0"/>
    <connection from="-255690850#1" to="255690852#0" fromLane="1" toLane="1"/>
    <connection from="-255690850#1" to="255761646" fromLane="1" toLane="0"/>
    <connection from="-255690850#1" to="255690850#1" fromLane="1" toLane="1"/>

    <connection from="-255690852#0" to="255761646" fromLane="0" toLane="0"/>
    <connection from="-255690852#0" to="255690850#1" fromLane="0" toLane="0"/>
    <connection from="-255690852#0" to="255690850#1" fromLane="1" toLane="1"/>
    <connection from="-255690852#0" to="-255690850#0" fromLane="1" toLane="1"/>
    <connection from="-255690852#0" to="255690852#0" fromLane="1" toLane="1"/>

    <connection from="-255690852#1" to="-255690852#0" fromLane="0" toLane="0"/>
    <connection from="-255690852#1" to="-255690852#0" fromLane="1" toLane="1"/>
    <connection from="-255690852#1" to="-255690869" fromLane="1" toLane="0"/>
    <connection from="-255690852#1" to="255690852#1" fromLane="1" toLane="1"/>

    <connection from="-255690855#0" to="-133654053#8" fromLane="0" toLane="0"/>
    <connection from="-255690855#0" to="-255690850#1" fromLane="0" toLane="0"/>
    <connection from="-255690855#0" to="-255690850#1" fromLane="1" toLane="1"/>
    <connection from="-255690855#0" to="133658528#0" fromLane="1" toLane="0"/>
    <connection from="-255690855#0" to="255690855#0" fromLane="1" toLane="1"/>

    <connection from="-255690855#1" to="-255690855#0" fromLane="0" toLane="0"/>
    <connection from="-255690855#1" to="-255690855#0" fromLane="1" toLane="1"/>
    <connection from="-255690855#1" to="255690860" fromLane="1" toLane="0"/>
    <connection from="-255690855#1" to="255690855#1" fromLane="1" toLane="1"/>

    <connection from="-255690855#2" to="-255690855#1" fromLane="0" toLane="0"/>
    <connection from="-255690855#2" to="-255690855#1" fromLane="1" toLane="1"/>
    <connection from="-255690855#2" to="255690855#2" fromLane="1" toLane="1"/>

    <connection from="-255690855#3" to="-255690855#2" fromLane="0" toLane="0"/>
    <connection from="-255690855#3" to="-255690855#2" fromLane="1" toLane="1"/>
    <connection from="-255690855#3" to="-255761648#1" fromLane="1" toLane="0"/>
    <connection from="-255690855#3" to="255690855#3" fromLane="1" toLane="1"/>

    <connection from="-255690855#4" to="-255690855#3" fromLane="0" toLane="0"/>
    <connection from="-255690855#4" to="-255690855#3" fromLane="1" toLane="1"/>
    <connection from="-255690855#4" to="-255760514" fromLane="1" toLane="0"/>
    <connection from="-255690855#4" to="255690855#4" fromLane="1" toLane="1"/>

    <connection from="-255690855#5" to="255761992#0" fromLane="0" toLane="0"/>
    <connection from="-255690855#5" to="-255690855#4" fromLane="0" toLane="0"/>
    <connection from="-255690855#5" to="-255690855#4" fromLane="1" toLane="1"/>
    <connection from="-255690855#5" to="255690855#5" fromLane="1" toLane="1"/>

    <connection from="-255690855#6" to="-255690855#5" fromLane="0" toLane="0"/>
    <connection from="-255690855#6" to="-255690855#5" fromLane="1" toLane="1"/>
    <connection from="-255690855#6" to="-255760515#1" fromLane="1" toLane="0"/>
    <connection from="-255690855#6" to="255690855#6" fromLane="1" toLane="1"/>

    <connection from="-255690855#7" to="-255690855#6" fromLane="0" toLane="0"/>
    <connection from="-255690855#7" to="-255690855#6" fromLane="1" toLane="1"/>
    <connection from="-255690855#7" to="-336675922#8" fromLane="1" toLane="0"/>
    <connection from="-255690855#7" to="255690855#7" fromLane="1" toLane="1"/>

    <connection from="-255690860" to="255690855#1" fromLane="0" toLane="0"/>
    <connection from="-255690860" to="-255690855#0" fromLane="0" toLane="1"/>
    <connection from="-255690860" to="255690860" fromLane="0" toLane="0"/>

    <connection from="-255690862#0" to="-133654053#3" fromLane="0" toLane="0"/>
    <connection from="-255690862#0" to="255761991" fromLane="0" toLane="0"/>
    <connection from="-255690862#0" to="133654053#4" fromLane="0" toLane="0"/>
    <connection from="-255690862#0" to="255690862#0" fromLane="0" toLane="0"/>

    <connection from="-255690862#1" to="255690865#0" fromLane="0" toLane="0"/>
    <connection from="-255690862#1" to="-255690862#0" fromLane="0" toLane="0"/>
    <connection from="-255690862#1" to="255690862#1" fromLane="0" toLane="0"/>

    <connection from="-255690865#0" to="-255690862#0" fromLane="0" toLane="0"/>
    <connection from="-255690865#0" to="255690862#1" fromLane="0" toLane="0"/>
    <connection from="-255690865#0" to="255690865#0" fromLane="0" toLane="0"/>

    <connection from="-255690865#1" to="-255690865#0" fromLane="0" toLane="0"/>
    <connection from="-255690865#1" to="255690866#0" fromLane="0" toLane="0"/>
    <connection from="-255690865#1" to="255690865#1" fromLane="0" toLane="0"/>

    <connection from="-255690866#0" to="255690865#1" fromLane="0" toLane="0"/>
    <connection from="-255690866#0" to="-255690865#0" fromLane="0" toLane="0"/>
    <connection from="-255690866#0" to="255690866#0" fromLane="0" toLane="0"/>

    <connection from="-255690866#1" to="-255690866#0" fromLane="0" toLane="0"/>
    <connection from="-255690866#1" to="255690869" fromLane="0" toLane="0"/>
    <connection from="-255690866#1" to="255690866#1" fromLane="0" toLane="0"/>

    <connection from="-255690869" to="255690866#1" fromLane="0" toLane="0"/>
    <connection from="-255690869" to="-255690866#0" fromLane="0" toLane="0"/>
    <connection from="-255690869" to="255690869" fromLane="0" toLane="0"/>

    <connection from="-255690872#0" to="-133654053#5" fromLane="0" toLane="0"/>
    <connection from="-255690872#0" to="133654053#6" fromLane="0" toLane="0"/>
    <connection from="-255690872#0" to="255690872#0" fromLane="0" toLane="0"/>

    <connection from="-255690872#1" to="-255690872#2" fromLane="0" toLane="0"/>
    <connection from="-255690872#1" to="-255690872#0" fromLane="0" toLane="0"/>
    <connection from="-255690872#1" to="255690872#1" fromLane="0" toLane="0"/>

    <connection from="-255690872#2" to="-255690872#1" fromLane="0" toLane="0"/>
    <connection from="-255690872#2" to="255768810" fromLane="0" toLane="0"/>
    <connection from="-255690872#2" to="255690872#2" fromLane="0" toLane="0"/>

    <connection from="-255690895#0" to="-133654053#4" fromLane="0" toLane="0"/>
    <connection from="-255690895#0" to="133654053#5" fromLane="0" toLane="0"/>
    <connection from="-255690895#0" to="255690895#0" fromLane="0" toLane="0"/>

    <connection from="-255690895#1" to="336674190" fromLane="0" toLane="0"/>
    <connection from="-255690895#1" to="-255690895#0" fromLane="0" toLane="0"/>
    <connection from="-255690895#1" to="255690895#1" fromLane="0" toLane="0"/>

    <connection from="-255690895#2" to="-255690895#1" fromLane="0" toLane="0"/>
    <connection from="-255690895#2" to="-255690895#3" fromLane="0" toLane="0"/>
    <connection from="-255690895#2" to="255690895#2" fromLane="0" toLane="0"/>

    <connection from="-255690895#3" to="-255690895#2" fromLane="0" toLane="0"/>
    <connection from="-255690895#3" to="255690895#3" fromLane="0" toLane="0"/>

    <connection from="-255690897" to="401433601#1" fromLane="0" toLane="0"/>
    <connection from="-255690897" to="-401433601#0" fromLane="0" toLane="0"/>
    <connection from="-255690897" to="255690897" fromLane="0" toLane="0"/>

    <connection from="-255760164#0" to="-255761992#3" fromLane="0" toLane="0"/>
    <connection from="-255760164#0" to="255760164#0" fromLane="0" toLane="0"/>

    <connection from="-255760164#1" to="-255760164#0" fromLane="0" toLane="0"/>
    <connection from="-255760164#1" to="255805244" fromLane="0" toLane="0"/>
    <connection from="-255760164#1" to="255760164#1" fromLane="0" toLane="0"/>

    <connection from="-255760166" to="327199417" fromLane="0" toLane="0"/>
    <connection from="-255760166" to="-255690855#7" fromLane="0" toLane="0"/>
    <connection from="-255760166" to="-255690855#7" fromLane="1" toLane="1"/>
    <connection from="-255760166" to="255760166" fromLane="1" toLane="1"/>

    <connection from="-255760514" to="-336675922#2" fromLane="0" toLane="0"/>
    <connection from="-255760514" to="336675922#3" fromLane="0" toLane="0"/>
    <connection from="-255760514" to="255760514" fromLane="0" toLane="0"/>

    <connection from="-255760515#0" to="-336675922#3" fromLane="0" toLane="0"/>
    <connection from="-255760515#0" to="336675922#4" fromLane="0" toLane="0"/>
    <connection from="-255760515#0" to="255760515#0" fromLane="0" toLane="0"/>

    <connection from="-255760515#1" to="-255760515#0" fromLane="0" toLane="0"/>
    <connection from="-255760515#1" to="255760518#0" fromLane="0" toLane="0"/>
    <connection from="-255760515#1" to="255760515#1" fromLane="0" toLane="0"/>

    <connection from="-255760517" to="-336675922#4" fromLane="0" toLane="0"/>
    <connection from="-255760517" to="336675922#5" fromLane="0" toLane="0"/>
    <connection from="-255760517" to="255760517" fromLane="0" toLane="0"/>

    <connection from="-255760518#0" to="255760515#1" fromLane="0" toLane="0"/>
    <connection from="-255760518#0" to="-255760515#0" fromLane="0" toLane="0"/>
    <connection from="-255760518#0" to="255760518#0" fromLane="0" toLane="0"/>

    <connection from="-255760518#1" to="-255760518#0" fromLane="0" toLane="0"/>
    <connection from="-255760518#1" to="-255760517" fromLane="0" toLane="0"/>
    <connection from="-255760518#1" to="255760518#1" fromLane="0" toLane="0"/>

    <connection from="-255760518#2" to="336675924" fromLane="0" toLane="0"/>
    <connection from="-255760518#2" to="-255760518#1" fromLane="0" toLane="0"/>
    <connection from="-255760518#2" to="255760518#2" fromLane="0" toLane="0"/>

    <connection from="-255760518#3" to="-336675923" fromLane="0" toLane="0"/>
    <connection from="-255760518#3" to="-255760518#2" fromLane="0" toLane="0"/>
    <connection from="-255760518#3" to="255760518#3" fromLane="0" toLane="0"/>

    <connection from="-255761646" to="255690850#1" fromLane="0" toLane="0"/>
    <connection from="-255761646" to="-255690850#0" fromLane="0" toLane="1"/>
    <connection from="-255761646" to="255690852#0" fromLane="0" toLane="1"/>
    <connection from="-255761646" to="255761646" fromLane="0" toLane="0"/>

    <connection from="-255761648#0" to="-336675922#0" fromLane="0" toLane="0"/>
    <connection from="-255761648#0" to="336675922#1" fromLane="0" toLane="0"/>
    <connection from="-255761648#0" to="255761648#0" fromLane="0" toLane="0"/>

    <connection from="-255761648#1" to="-255690860" fromLane="0" toLane="0"/>
    <connection from="-255761648#1" to="-255761648#0" fromLane="0" toLane="0"/>
    <connection from="-255761648#1" to="255761648#1" fromLane="0" toLane="0"/>

    <connection from="-255761649" to="133658527#4" fromLane="0" toLane="0"/>
    <connection from="-255761649" to="-133658527#3" fromLane="0" toLane="0"/>
    <connection from="-255761649" to="255761649" fromLane="0" toLane="0"/>

    <connection from="-255761650#0" to="255761651" fromLane="0" toLane="0"/>
    <connection from="-255761650#0" to="-255761649" fromLane="0" toLane="0"/>
    <connection from="-255761650#0" to="255761650#0" fromLane="0" toLane="0"/>

    <connection from="-255761650#1" to="-255761650#0" fromLane="0" toLane="0"/>
    <connection from="-255761650#1" to="255761650#1" fromLane="0" toLane="0"/>

    <connection from="-255761650#2" to="-255761650#1" fromLane="0" toLane="0"/>
    <connection from="-255761650#2" to="255761650#2" fromLane="0" toLane="0"/>

    <connection from="-255761651" to="-255761649" fromLane="0" toLane="0"/>
    <connection from="-255761651" to="255761650#0" fromLane="0" toLane="0"/>
    <connection from="-255761651" to="255761651" fromLane="0" toLane="0"/>

    <connection from="-255761652" to="-255761651" fromLane="0" toLane="0"/>
    <connection from="-255761652" to="255761652" fromLane="0" toLane="0"/>

    <connection from="-255761991" to="133654053#4" fromLane="0" toLane="0"/>
    <connection from="-255761991" to="255690862#0" fromLane="0" toLane="0"/>
    <connection from="-255761991" to="-133654053#3" fromLane="0" toLane="0"/>
    <connection from="-255761991" to="255761991" fromLane="0" toLane="0"/>

    <connection from="-255761992#0" to="-255690855#4" fromLane="0" toLane="0"/>
    <connection from="-255761992#0" to="255690855#5" fromLane="0" toLane="1"/>
    <connection from="-255761992#0" to="255761992#0" fromLane="0" toLane="0"/>

    <connection from="-255761992#1" to="-255767489" fromLane="0" toLane="0"/>
    <connection from="-255761992#1" to="-255761992#0" fromLane="0" toLane="0"/>
    <connection from="-255761992#1" to="255761992#1" fromLane="0" toLane="0"/>

    <connection from="-255761992#2" to="-255761992#1" fromLane="0" toLane="0"/>
    <connection from="-255761992#2" to="255805242" fromLane="0" toLane="0"/>
    <connection from="-255761992#2" to="255761992#2" fromLane="0" toLane="0"/>

    <connection from="-255761992#3" to="-255761992#2" fromLane="0" toLane="0"/>
    <connection from="-255761992#3" to="255805243" fromLane="0" toLane="0"/>
    <connection from="-255761992#3" to="255761992#3" fromLane="0" toLane="0"/>

    <connection from="-255767486" to="336675922#2" fromLane="0" toLane="0"/>
    <connection from="-255767486" to="-336675922#1" fromLane="0" toLane="0"/>
    <connection from="-255767486" to="255767486" fromLane="0" toLane="0"/>

    <connection from="-255767487" to="-255767486" fromLane="0" toLane="0"/>
    <connection from="-255767487" to="-255690897" fromLane="0" toLane="0"/>
    <connection from="-255767487" to="401433600" fromLane="0" toLane="0"/>
    <connection from="-255767487" to="255767487" fromLane="0" toLane="0"/>

    <connection from="-255767489" to="255767489" fromLane="0" toLane="0"/>

    <connection from="-255768810" to="255690872#2" fromLane="0" toLane="0"/>
    <connection from="-255768810" to="-255690872#1" fromLane="0" toLane="0"/>
    <connection from="-255768810" to="255768810" fromLane="0" toLane="0"/>

    <connection from="-255805242" to="255761992#2" fromLane="0" toLane="0"/>
    <connection from="-255805242" to="-255761992#1" fromLane="0" toLane="0"/>
    <connection from="-255805242" to="255805242" fromLane="0" toLane="0"/>

    <connection from="-255805243" to="255761992#3" fromLane="0" toLane="0"/>
    <connection from="-255805243" to="-255761992#2" fromLane="0" toLane="0"/>
    <connection from="-255805243" to="255805243" fromLane="0" toLane="0"/>

    <connection from="-255805244" to="255760164#1" fromLane="0" toLane="0"/>
    <connection from="-255805244" to="-255760164#0" fromLane="0" toLane="0"/>
    <connection from="-255805244" to="255805244" fromLane="0" toLane="0"/>

    <connection from="-297071232" to="-255690865#1" fromLane="0" toLane="0"/>
    <connection from="-297071232" to="297071232" fromLane="0" toLane="0"/>

    <connection from="-297084695" to="133654053#2" fromLane="0" toLane="0"/>
    <connection from="-297084695" to="-133654053#1" fromLane="0" toLane="0"/>
    <connection from="-297084695" to="297084695" fromLane="0" toLane="0"/>

    <connection from="-327199417" to="-255690855#7" fromLane="0" toLane="0"/>
    <connection from="-327199417" to="255760166" fromLane="0" toLane="0"/>
    <connection from="-327199417" to="255760166" fromLane="1" toLane="1"/>
    <connection from="-327199417" to="327199417" fromLane="1" toLane="1"/>

    <connection from="-336674190" to="-255690895#0" fromLane="0" toLane="0"/>
    <connection from="-336674190" to="255690895#1" fromLane="0" toLane="0"/>
    <connection from="-336674190" to="336674190" fromLane="0" toLane="0"/>

    <connection from="-336675922#0" to="-133658528#0" fromLane="0" toLane="0"/>
    <connection from="-336675922#0" to="-133658527#4" fromLane="0" toLane="0"/>
    <connection from="-336675922#0" to="133658528#1" fromLane="0" toLane="0"/>
    <connection from="-336675922#0" to="336675922#0" fromLane="0" toLane="0"/>

    <connection from="-336675922#1" to="255761648#0" fromLane="0" toLane="0"/>
    <connection from="-336675922#1" to="-336675922#0" fromLane="0" toLane="0"/>
    <connection from="-336675922#1" to="336675922#1" fromLane="0" toLane="0"/>

    <connection from="-336675922#2" to="-336675922#1" fromLane="0" toLane="0"/>
    <connection from="-336675922#2" to="255767486" fromLane="0" toLane="0"/>
    <connection from="-336675922#2" to="336675922#2" fromLane="0" toLane="0"/>

    <connection from="-336675922#3" to="255760514" fromLane="0" toLane="0"/>
    <connection from="-336675922#3" to="-336675922#2" fromLane="0" toLane="0"/>
    <connection from="-336675922#3" to="336675922#3" fromLane="0" toLane="0"/>

    <connection from="-336675922#4" to="255760515#0" fromLane="0" toLane="0"/>
    <connection from="-336675922#4" to="-336675922#3" fromLane="0" toLane="0"/>
    <connection from="-336675922#4" to="336675922#4" fromLane="0" toLane="0"/>

    <connection from="-336675922#5" to="255760517" fromLane="0" toLane="0"/>
    <connection from="-336675922#5" to="-336675922#4" fromLane="0" toLane="0"/>
    <connection from="-336675922#5" to="336675922#5" fromLane="0" toLane="0"/>

    <connection from="-336675922#6" to="-255760518#3" fromLane="0" toLane="0"/>
    <connection from="-336675922#6" to="-336675922#5" fromLane="0" toLane="0"/>
    <connection from="-336675922#6" to="336675922#6" fromLane="0" toLane="0"/>

    <connection from="-336675922#7" to="336675923" fromLane="0" toLane="0"/>
    <connection from="-336675922#7" to="-336675922#6" fromLane="0" toLane="0"/>
    <connection from="-336675922#7" to="336675922#7" fromLane="0" toLane="0"/>

    <connection from="-336675922#8" to="-336675924" fromLane="0" toLane="0"/>
    <connection from="-336675922#8" to="-336675922#7" fromLane="0" toLane="0"/>
    <connection from="-336675922#8" to="336675922#8" fromLane="0" toLane="0"/>

    <connection from="-336675923" to="-336675922#6" fromLane="0" toLane="0"/>
    <connection from="-336675923" to="336675922#7" fromLane="0" toLane="0"/>
    <connection from="-336675923" to="336675923" fromLane="0" toLane="0"/>

    <connection from="-336675924" to="-255760518#1" fromLane="0" toLane="0"/>
    <connection from="-336675924" to="255760518#2" fromLane="0" toLane="0"/>
    <connection from="-336675924" to="336675924" fromLane="0" toLane="0"/>

    <connection from="-370660309" to="-370660311" fromLane="0" toLane="0"/>
    <connection from="-370660309" to="-370660311" fromLane="1" toLane="1"/>
    <connection from="-370660309" to="370660309" fromLane="1" toLane="1"/>

    <connection from="-370660311" to="-255760166" fromLane="0" toLane="0"/>
    <connection from="-370660311" to="-255760166" fromLane="1" toLane="1"/>
    <connection from="-370660311" to="370660311" fromLane="1" toLane="1"/>

    <connection from="-370660357" to="121645907#1" fromLane="0" toLane="0"/>
    <connection from="-370660357" to="-121645907#0" fromLane="0" toLane="1"/>
    <connection from="-370660357" to="370660357" fromLane="0" toLane="0"/>

    <connection from="-371064286#0" to="371064286#0" fromLane="0" toLane="0"/>

    <connection from="-371064286#1" to="-371064289" fromLane="0" toLane="0"/>
    <connection from="-371064286#1" to="-371064286#0" fromLane="0" toLane="0"/>
    <connection from="-371064286#1" to="371064286#1" fromLane="0" toLane="0"/>

    <connection from="-371064286#2" to="-371064496" fromLane="0" toLane="0"/>
    <connection from="-371064286#2" to="-371064286#1" fromLane="0" toLane="0"/>
    <connection from="-371064286#2" to="371064286#2" fromLane="0" toLane="0"/>

    <connection from="-371064286#3" to="-371064497" fromLane="0" toLane="0"/>
    <connection from="-371064286#3" to="-371064286#2" fromLane="0" toLane="0"/>
    <connection from="-371064286#3" to="371064286#3" fromLane="0" toLane="0"/>

    <connection from="-371064289" to="371064289" fromLane="0" toLane="0"/>

    <connection from="-371064291" to="121646136#2" fromLane="0" toLane="0"/>
    <connection from="-371064291" to="-121646136#1" fromLane="0" toLane="1"/>
    <connection from="-371064291" to="371064291" fromLane="0" toLane="0"/>

    <connection from="-371064303#0" to="-371064286#3" fromLane="0" toLane="0"/>
    <connection from="-371064303#0" to="371064303#0" fromLane="0" toLane="0"/>

    <connection from="-371064303#1" to="-371064291" fromLane="0" toLane="0"/>
    <connection from="-371064303#1" to="-371064303#0" fromLane="0" toLane="0"/>
    <connection from="-371064303#1" to="371064303#1" fromLane="0" toLane="0"/>

    <connection from="-371064496" to="371064496" fromLane="0" toLane="0"/>

    <connection from="-371064497" to="121646136#1" fromLane="0" toLane="0"/>
    <connection from="-371064497" to="-121646136#0" fromLane="0" toLane="1"/>
    <connection from="-371064497" to="371064497" fromLane="0" toLane="0"/>

    <connection from="-401433600" to="255767487" fromLane="0" toLane="0"/>
    <connection from="-401433600" to="-255767486" fromLane="0" toLane="0"/>
    <connection from="-401433600" to="-255690897" fromLane="0" toLane="0"/>
    <connection from="-401433600" to="401433600" fromLane="0" toLane="0"/>

    <connection from="-401433601#0" to="-401433602#1" fromLane="0" toLane="0"/>
    <connection from="-401433601#0" to="401433601#0" fromLane="0" toLane="0"/>

    <connection from="-401433601#1" to="-401433601#0" fromLane="0" toLane="0"/>
    <connection from="-401433601#1" to="255690897" fromLane="0" toLane="0"/>
    <connection from="-401433601#1" to="401433601#1" fromLane="0" toLane="0"/>

    <connection from="-401433602#0" to="-401433600" fromLane="0" toLane="0"/>
    <connection from="-401433602#0" to="401433602#0" fromLane="0" toLane="0"/>

    <connection from="-401433602#1" to="-401433602#0" fromLane="0" toLane="0"/>
    <connection from="-401433602#1" to="401433602#1" fromLane="0" toLane="0"/>
