<?xml version="1.0" encoding="UTF-8"?>

<!-- generated on Wed May 20 11:29:43 2020 by SUMO netconvert Version 0.32.0
<?xml version="1.0" encoding="UTF-8"?>

<configuration xmlns:xsi="http://www.w3.org/2001/XMLSchema-instance" xsi:noNamespaceSchemaLocation="http://sumo.dlr.de/xsd/netconvertConfiguration.xsd">

    <input>
        <sumo-net-file value="map.net.xml"/>
    </input>

    <output>
        <plain-output-prefix value="map"/>
        <output.street-names value="true"/>
    </output>

    <processing>
        <no-turnarounds value="true"/>
        <offset.disable-normalization value="true"/>
        <lefthand value="true"/>
        <junctions.corner-detail value="0"/>
        <rectangular-lane-cut value="false"/>
        <walkingareas value="false"/>
    </processing>

</configuration>
-->

<edges version="0.27" xmlns:xsi="http://www.w3.org/2001/XMLSchema-instance" xsi:noNamespaceSchemaLocation="http://sumo.dlr.de/xsd/edges_file.xsd">
    <edge id="-121645907#0" from="1361111478" to="1068901807" priority="7" type="highway.secondary" numLanes="2" speed="27.78" shape="3526.15,4969.11 4428.75,5168.82 4959.80,5285.25 5300.15,5348.97 5364.02,5364.94 5406.38,5392.31 5485.86,5415.45 5546.19,5457.04" disallow="tram rail_urban rail rail_electric ship"/>
    <edge id="-121645907#1" from="3743556394" to="1361111478" priority="7" type="highway.secondary" numLanes="2" speed="27.78" shape="2651.78,4486.00 2685.47,4561.08 2771.33,4692.47 2809.16,4727.73 2855.16,4764.61 2905.38,4781.03 2993.57,4816.61 3177.62,4882.39 3362.07,4935.36 3526.15,4969.11" disallow="tram rail_urban rail rail_electric ship"/>
    <edge id="-121645907#2" from="1361111333" to="3743556394" priority="7" type="highway.secondary" numLanes="2" speed="27.78" disallow="tram rail_urban rail rail_electric ship"/>
    <edge id="-121646136#0" from="3746865334" to="3009144522" name="Boundary Road" priority="7" type="highway.secondary" numLanes="2" speed="27.78" shape="979.85,3592.77 966.45,3513.97 954.52,3370.39 956.72,3286.48 963.93,3236.96 974.17,3205.64 990.51,3166.24 1013.95,3141.01 1045.07,3110.72 1117.85,3074.33 1153.09,3054.75 1187.75,3003.26 1260.16,2913.80 1297.28,2872.75 1454.10,2826.22 1554.06,2802.51 1647.69,2802.33 1676.33,2807.86 1694.67,2818.12 1817.76,2965.15 1835.00,2975.03 1925.30,2987.27 1963.49,2991.35 1981.85,2991.75 1997.27,2989.23" disallow="tram rail_urban rail rail_electric ship"/>
    <edge id="-121646136#1" from="3746862634" to="3746865334" name="Boundary Road" priority="7" type="highway.secondary" numLanes="2" speed="27.78" shape="1002.99,3712.70 995.51,3684.81 979.85,3592.77" disallow="tram rail_urban rail rail_electric ship"/>
    <edge id="-121646136#2" from="1361111333" to="3746862634" name="Boundary Road" priority="7" type="highway.secondary" numLanes="2" speed="27.78" shape="2623.32,4433.20 2464.67,4463.05 2361.83,4475.25 2270.78,4476.89 2194.40,4479.29 2064.82,4465.16 1746.60,4401.36 1577.02,4370.72 1437.75,4350.89 1409.86,4342.08 1385.29,4327.42 1345.35,4279.16 1240.08,4123.26 1088.32,3894.90 1033.39,3812.17 1021.70,3781.48 1002.99,3712.70" disallow="tram rail_urban rail rail_electric ship"/>
    <edge id="-133654053#0" from="2613601310" to="1471040640" name="Scholars&amp;apos; Avenue" priority="6" type="highway.tertiary" numLanes="1" speed="22.22" disallow="tram rail_urban rail rail_electric ship"/>
    <edge id="-133654053#1" from="3009163264" to="2613601310" name="Scholars&amp;apos; Avenue" priority="6" type="highway.tertiary" numLanes="1" speed="22.22" disallow="tram rail_urban rail rail_electric ship"/>
    <edge id="-133654053#2" from="2613601308" to="3009163264" name="Scholars&amp;apos; Avenue" priority="6" type="highway.tertiary" numLanes="1" speed="22.22" disallow="tram rail_urban rail rail_electric ship"/>
    <edge id="-133654053#3" from="2613601300" to="2613601308" name="Scholars&amp;apos; Avenue" priority="6" type="highway.tertiary" numLanes="1" speed="22.22" disallow="tram rail_urban rail rail_electric ship"/>
    <edge id="-133654053#4" from="2613601359" to="2613601300" name="Scholars&amp;apos; Avenue" priority="6" type="highway.tertiary" numLanes="1" speed="22.22" shape="1713.76,4004.64 1715.38,4004.51 1721.34,4009.87 1738.27,4018.64 1752.15,4025.39 1777.84,4034.28 1802.57,4039.30 1858.19,4047.24 1957.40,4060.54 1969.45,4062.75" disallow="tram rail_urban rail rail_electric ship"/>
    <edge id="-133654053#5" from="2614487336" to="2613601359" name="Scholars&amp;apos; Avenue" priority="6" type="highway.tertiary" numLanes="1" speed="22.22" shape="1689.30,3844.86 1681.78,3871.25 1678.47,3892.54 1678.05,3898.01 1676.93,3912.70 1678.09,3928.10 1684.80,3962.16 1700.61,3986.97 1713.76,4004.64" disallow="tram rail_urban rail rail_electric ship"/>
    <edge id="-133654053#6" from="2614492894" to="2614487336" name="Scholars&amp;apos; Avenue" priority="6" type="highway.tertiary" numLanes="1" speed="22.22" shape="1745.10,3777.56 1734.37,3784.09 1715.43,3799.01 1700.54,3822.32 1689.30,3844.86" disallow="tram rail_urban rail rail_electric ship"/>
    <edge id="-133654053#7" from="2614507396" to="2614492894" name="Scholars&amp;apos; Avenue" priority="6" type="highway.tertiary" numLanes="1" speed="22.22" shape="2041.19,3779.70 1833.83,3748.40 1812.27,3749.10 1784.86,3755.76 1764.99,3765.60 1745.10,3777.56" disallow="tram rail_urban rail rail_electric ship"/>
    <edge id="-133654053#8" from="2613601271" to="2614507396" name="Scholars&amp;apos; Avenue" priority="6" type="highway.tertiary" numLanes="1" speed="22.22" disallow="tram rail_urban rail rail_electric ship"/>
    <edge id="-133658527#0" from="2614503560" to="1471100893" priority="6" type="highway.tertiary" numLanes="1" speed="22.22" disallow="tram rail_urban rail rail_electric ship"/>
    <edge id="-133658527#1" from="2614503552" to="2614503560" priority="6" type="highway.tertiary" numLanes="1" speed="22.22" disallow="tram rail_urban rail rail_electric ship"/>
    <edge id="-133658527#2" from="2614503546" to="2614503552" priority="6" type="highway.tertiary" numLanes="1" speed="22.22" shape="2588.38,4104.00 2586.13,4118.90 2580.50,4171.62 2805.88,4205.19" disallow="tram rail_urban rail rail_electric ship"/>
    <edge id="-133658527#3" from="2614503548" to="2614503546" priority="6" type="highway.tertiary" numLanes="1" speed="22.22" disallow="tram rail_urban rail rail_electric ship"/>
    <edge id="-133658527#4" from="1471100885" to="2614503548" priority="6" type="highway.tertiary" numLanes="1" speed="22.22" disallow="tram rail_urban rail rail_electric ship"/>
    <edge id="-133658528#0" from="1471100885" to="2613601271" name="Aroeshir Dalal Avenue" priority="6" type="highway.tertiary" numLanes="1" speed="22.22" disallow="tram rail_urban rail rail_electric ship"/>
    <edge id="-133658528#1" from="2613601368" to="1471100885" name="Aroeshir Dalal Avenue" priority="6" type="highway.tertiary" numLanes="1" speed="22.22" disallow="tram rail_urban rail rail_electric ship"/>
    <edge id="-133658528#2" from="1471100888" to="2613601368" name="Aroeshir Dalal Avenue" priority="6" type="highway.tertiary" numLanes="1" speed="22.22" disallow="tram rail_urban rail rail_electric ship"/>
    <edge id="-133658752#0" from="1471104306" to="1471100888" priority="5" type="highway.unclassified" numLanes="1" speed="13.89" shape="3617.33,3987.01 3598.11,4001.56 3584.47,4000.61 3576.42,3999.01" disallow="tram rail_urban rail rail_electric ship"/>
    <edge id="-133658752#1" from="1471104302" to="1471104306" priority="5" type="highway.unclassified" numLanes="1" speed="13.89" shape="3612.14,3832.10 3605.53,3819.99 3595.16,3819.83 3585.63,3824.35 3577.72,3836.47 3578.94,3851.80 3621.79,3968.35 3617.33,3987.01" disallow="tram rail_urban rail rail_electric ship"/>
    <edge id="-133658872#0" from="3707514842" to="1471110179" priority="5" type="highway.unclassified" numLanes="1" speed="13.89" disallow="tram rail_urban rail rail_electric ship"/>
    <edge id="-133658872#1" from="1471110182" to="3707514842" priority="5" type="highway.unclassified" numLanes="1" speed="13.89" shape="3646.40,4032.72 3635.30,4061.27 3606.52,4083.18 3551.42,4129.15" disallow="tram rail_urban rail rail_electric ship"/>
    <edge id="-133658872#2" from="1471110146" to="1471110182" priority="5" type="highway.unclassified" numLanes="1" speed="13.89" shape="3845.62,3878.24 3675.15,4010.43 3646.40,4032.72" disallow="tram rail_urban rail rail_electric ship"/>
    <edge id="-133658873#0" from="1471104306" to="1471110173" priority="5" type="highway.unclassified" numLanes="1" speed="13.89" disallow="tram rail_urban rail rail_electric ship"/>
    <edge id="-133658873#1" from="1471110182" to="1471104306" priority="5" type="highway.unclassified" numLanes="1" speed="13.89" shape="3646.40,4032.72 3637.94,4023.90 3628.32,4014.50 3607.34,4006.77 3617.33,3987.01" disallow="tram rail_urban rail rail_electric ship"/>
    <edge id="-255690850#0" from="2613601269" to="1471040640" name="IIT Main Road" priority="7" type="highway.secondary" numLanes="2" speed="27.78" disallow="tram rail_urban rail rail_electric ship"/>
    <edge id="-255690850#1" from="2613601271" to="2613601269" name="IIT Main Road" priority="7" type="highway.secondary" numLanes="2" speed="27.78" disallow="tram rail_urban rail rail_electric ship"/>
    <edge id="-255690852#0" from="2613601311" to="2613601269" priority="7" type="highway.secondary" numLanes="2" speed="27.78" disallow="tram rail_urban rail rail_electric ship"/>
    <edge id="-255690852#1" from="1361111333" to="2613601311" priority="7" type="highway.secondary" numLanes="2" speed="27.78" disallow="tram rail_urban rail rail_electric ship"/>
    <edge id="-255690855#0" from="2613601282" to="2613601271" priority="7" type="highway.secondary" numLanes="2" speed="27.78" disallow="tram rail_urban rail rail_electric ship"/>
    <edge id="-255690855#1" from="2613601289" to="2613601282" priority="7" type="highway.secondary" numLanes="2" speed="27.78" disallow="tram rail_urban rail rail_electric ship"/>
    <edge id="-255690855#2" from="2613601280" to="2613601289" priority="7" type="highway.secondary" numLanes="2" speed="27.78" disallow="tram rail_urban rail rail_electric ship"/>
    <edge id="-255690855#3" from="2614495596" to="2613601280" priority="7" type="highway.secondary" numLanes="2" speed="27.78" disallow="tram rail_urban rail rail_electric ship"/>
    <edge id="-255690855#4" from="2614507398" to="2614495596" priority="7" type="highway.secondary" numLanes="2" speed="27.78" disallow="tram rail_urban rail rail_electric ship"/>
    <edge id="-255690855#5" from="2614495599" to="2614507398" priority="7" type="highway.secondary" numLanes="2" speed="27.78" disallow="tram rail_urban rail rail_electric ship"/>
    <edge id="-255690855#6" from="3437318420" to="2614495599" priority="7" type="highway.secondary" numLanes="2" speed="27.78" disallow="tram rail_urban rail rail_electric ship"/>
    <edge id="-255690855#7" from="2614492897" to="3437318420" priority="7" type="highway.secondary" numLanes="2" speed="27.78" disallow="tram rail_urban rail rail_electric ship"/>
    <edge id="-255690860" from="2613601287" to="2613601282" priority="5" type="highway.unclassified" numLanes="1" speed="13.89" shape="2394.57,3443.19 2390.34,3517.13 2264.07,3511.72" disallow="tram rail_urban rail rail_electric ship"/>
    <edge id="-255690862#0" from="2613601305" to="2613601300" priority="6" type="highway.tertiary" numLanes="1" speed="22.22" disallow="tram rail_urban rail rail_electric ship"/>
    <edge id="-255690862#1" from="2613601304" to="2613601305" priority="6" type="highway.tertiary" numLanes="1" speed="22.22" shape="1821.76,4273.59 1934.71,4281.79 1940.33,4246.82" disallow="tram rail_urban rail rail_electric ship"/>
    <edge id="-255690865#0" from="2613601307" to="2613601305" priority="6" type="highway.tertiary" numLanes="1" speed="22.22" shape="2181.16,4263.44 2170.54,4278.00 1940.33,4246.82" disallow="tram rail_urban rail rail_electric ship"/>
    <edge id="-255690865#1" from="3009104477" to="2613601307" priority="6" type="highway.tertiary" numLanes="1" speed="22.22" disallow="tram rail_urban rail rail_electric ship"/>
    <edge id="-255690866#0" from="2613601309" to="2613601307" priority="6" type="highway.tertiary" numLanes="1" speed="22.22" disallow="tram rail_urban rail rail_electric ship"/>
    <edge id="-255690866#1" from="2613601310" to="2613601309" priority="6" type="highway.tertiary" numLanes="1" speed="22.22" disallow="tram rail_urban rail rail_electric ship"/>
    <edge id="-255690869" from="2613601311" to="2613601309" priority="6" type="highway.tertiary" numLanes="1" speed="22.22" disallow="tram rail_urban rail rail_electric ship"/>
    <edge id="-255690872#0" from="2613601325" to="2614487336" priority="6" type="highway.tertiary" numLanes="1" speed="22.22" shape="1456.39,3811.33 1672.19,3845.63 1689.30,3844.86" disallow="tram rail_urban rail rail_electric ship"/>
    <edge id="-255690872#1" from="2613601324" to="2613601325" priority="6" type="highway.tertiary" numLanes="1" speed="22.22" shape="1360.16,3879.03 1277.92,3867.53 1207.95,3825.27 1209.64,3796.94 1228.41,3775.10 1456.39,3811.33" disallow="tram rail_urban rail rail_electric ship"/>
    <edge id="-255690872#2" from="2613601325" to="2613601324" priority="6" type="highway.tertiary" numLanes="1" speed="22.22" disallow="tram rail_urban rail rail_electric ship"/>
    <edge id="-255690895#0" from="3437297234" to="2613601359" name="PAN Loop" priority="6" type="highway.tertiary" numLanes="1" speed="22.22" disallow="tram rail_urban rail rail_electric ship"/>
    <edge id="-255690895#1" from="2613601360" to="3437297234" name="PAN Loop" priority="6" type="highway.tertiary" numLanes="1" speed="22.22" disallow="tram rail_urban rail rail_electric ship"/>
    <edge id="-255690895#2" from="3437297235" to="2613601360" name="PAN Loop" priority="6" type="highway.tertiary" numLanes="1" speed="22.22" shape="1458.09,4044.69 1451.96,4066.65 1586.70,4102.63 1638.21,4037.09" disallow="tram rail_urban rail rail_electric ship"/>
    <edge id="-255690895#3" from="2613601360" to="3437297235" name="PAN Loop" priority="6" type="highway.tertiary" numLanes="1" speed="22.22" shape="1638.21,4037.09 1467.51,4025.48 1458.09,4044.69" disallow="tram rail_urban rail rail_electric ship"/>
    <edge id="-255690897" from="2613601371" to="2613601372" priority="6" type="highway.tertiary" numLanes="1" speed="22.22" shape="3135.69,3472.68 3094.50,3731.52 3092.76,3744.71" disallow="tram rail_urban rail rail_electric ship"/>
    <edge id="-255760164#0" from="2614945499" to="2613601298" priority="6" type="highway.tertiary" numLanes="1" speed="22.22" disallow="tram rail_urban rail rail_electric ship"/>
    <edge id="-255760164#1" from="2614492894" to="2614945499" priority="6" type="highway.tertiary" numLanes="1" speed="22.22" shape="1745.10,3777.56 1705.28,3726.34 1701.06,3704.71" disallow="tram rail_urban rail rail_electric ship"/>
    <edge id="-255760166" from="3743556226" to="2614492897" priority="9" type="highway.primary" numLanes="2" speed="27.78" shape="1929.74,2205.55 1980.92,2407.37 2026.85,2613.34 2076.91,2818.23 2087.82,2891.97" disallow="tram rail_urban rail rail_electric ship"/>
    <edge id="-255760514" from="2614495596" to="2614495595" priority="5" type="highway.unclassified" numLanes="1" speed="13.89" disallow="tram rail_urban rail rail_electric ship"/>
    <edge id="-255760515#0" from="2614495602" to="2614495597" priority="5" type="highway.unclassified" numLanes="1" speed="13.89" shape="2359.92,3220.00 2380.25,3215.10 2694.49,3246.29" disallow="tram rail_urban rail rail_electric ship"/>
    <edge id="-255760515#1" from="2614495599" to="2614495602" priority="5" type="highway.unclassified" numLanes="1" speed="13.89" disallow="tram rail_urban rail rail_electric ship"/>
    <edge id="-255760517" from="2614495601" to="2614495600" priority="5" type="highway.unclassified" numLanes="1" speed="13.89" disallow="tram rail_urban rail rail_electric ship"/>
    <edge id="-255760518#0" from="2614495601" to="2614495602" priority="5" type="highway.unclassified" numLanes="1" speed="13.89" disallow="tram rail_urban rail rail_electric ship"/>
    <edge id="-255760518#1" from="2614495603" to="2614495601" priority="5" type="highway.unclassified" numLanes="1" speed="13.89" disallow="tram rail_urban rail rail_electric ship"/>
    <edge id="-255760518#2" from="3437318421" to="2614495603" priority="5" type="highway.unclassified" numLanes="1" speed="13.89" disallow="tram rail_urban rail rail_electric ship"/>
    <edge id="-255760518#3" from="2614492895" to="3437318421" priority="5" type="highway.unclassified" numLanes="1" speed="13.89" disallow="tram rail_urban rail rail_electric ship"/>
    <edge id="-255761646" from="2614503546" to="2613601269" priority="6" type="highway.tertiary" numLanes="1" speed="22.22" shape="2588.38,4104.00 2530.45,4102.97 2480.78,4128.53" disallow="tram rail_urban rail rail_electric ship"/>
    <edge id="-255761648#0" from="2613601287" to="2613601278" priority="6" type="highway.tertiary" numLanes="1" speed="22.22" disallow="tram rail_urban rail rail_electric ship"/>
    <edge id="-255761648#1" from="2613601280" to="2613601287" priority="6" type="highway.tertiary" numLanes="1" speed="22.22" disallow="tram rail_urban rail rail_electric ship"/>
    <edge id="-255761649" from="2614503550" to="2614503548" priority="6" type="highway.tertiary" numLanes="1" speed="22.22" disallow="tram rail_urban rail rail_electric ship"/>
    <edge id="-255761650#0" from="2614503566" to="2614503550" priority="5" type="highway.unclassified" numLanes="1" speed="13.89" shape="2829.55,4045.06 2837.97,3988.09 2840.57,3970.51" disallow="tram rail_urban rail rail_electric ship"/>
    <edge id="-255761650#1" from="2614503562" to="2614503566" priority="5" type="highway.unclassified" numLanes="1" speed="13.89" disallow="tram rail_urban rail rail_electric ship"/>
    <edge id="-255761650#2" from="2614503552" to="2614503562" priority="5" type="highway.unclassified" numLanes="1" speed="13.89" disallow="tram rail_urban rail rail_electric ship"/>
    <edge id="-255761651" from="2614503554" to="2614503550" priority="6" type="highway.tertiary" numLanes="1" speed="22.22" disallow="tram rail_urban rail rail_electric ship"/>
    <edge id="-255761652" from="2614503560" to="2614503554" priority="5" type="highway.unclassified" numLanes="1" speed="13.89" shape="2990.81,4232.73 3021.57,4214.36 3036.30,4123.63 3048.79,3995.30" disallow="tram rail_urban rail rail_electric ship"/>
    <edge id="-255761991" from="2614507396" to="2613601300" priority="5" type="highway.unclassified" numLanes="1" speed="13.89" shape="2041.19,3779.70 1989.84,3881.75 1977.07,3958.37 1969.45,4062.75" disallow="tram rail_urban rail rail_electric ship"/>
    <edge id="-255761992#0" from="2614552637" to="2614507398" priority="6" type="highway.tertiary" numLanes="1" speed="22.22" shape="1740.43,3404.56 1786.92,3358.52 1967.25,3251.21 2206.69,3301.70" disallow="tram rail_urban rail rail_electric ship"/>
    <edge id="-255761992#1" from="2614945489" to="2614552637" priority="6" type="highway.tertiary" numLanes="1" speed="22.22" shape="1696.68,3462.76 1712.74,3431.98 1740.43,3404.56" disallow="tram rail_urban rail rail_electric ship"/>
    <edge id="-255761992#2" from="2614945494" to="2614945489" priority="6" type="highway.tertiary" numLanes="1" speed="22.22" disallow="tram rail_urban rail rail_electric ship"/>
    <edge id="-255761992#3" from="2613601298" to="2614945494" priority="6" type="highway.tertiary" numLanes="1" speed="22.22" disallow="tram rail_urban rail rail_electric ship"/>
    <edge id="-255767486" from="2613601371" to="2614552632" priority="6" type="highway.tertiary" numLanes="1" speed="22.22" disallow="tram rail_urban rail rail_electric ship"/>
    <edge id="-255767487" from="2614552634" to="2613601371" priority="5" type="highway.unclassified" numLanes="1" speed="13.89" shape="3271.86,2837.30 3234.35,2850.63 3135.69,3472.68" disallow="tram rail_urban rail rail_electric ship"/>
    <edge id="-255767489" from="2614552637" to="2613601291" priority="5" type="highway.unclassified" numLanes="1" speed="13.89" disallow="tram rail_urban rail rail_electric ship"/>
    <edge id="-255768810" from="2614563029" to="2613601324" priority="5" type="highway.unclassified" numLanes="1" speed="13.89" disallow="tram rail_urban rail rail_electric ship"/>
    <edge id="-255805242" from="2614945492" to="2614945489" priority="5" type="highway.unclassified" numLanes="1" speed="13.89" shape="1403.37,3393.64 1669.63,3430.18 1696.68,3462.76" disallow="tram rail_urban rail rail_electric ship"/>
    <edge id="-255805243" from="2614945497" to="2614945494" priority="5" type="highway.unclassified" numLanes="1" speed="13.89" shape="1418.61,3494.38 1454.18,3482.45 1669.90,3514.13" disallow="tram rail_urban rail rail_electric ship"/>
    <edge id="-255805244" from="2614945502" to="2614945499" priority="5" type="highway.unclassified" numLanes="1" speed="13.89" shape="1469.84,3706.59 1554.40,3687.42 1701.06,3704.71" disallow="tram rail_urban rail rail_electric ship"/>
    <edge id="-297071232" from="2613601308" to="3009104477" priority="6" type="highway.tertiary" numLanes="1" speed="22.22" disallow="tram rail_urban rail rail_electric ship"/>
    <edge id="-297084695" from="3009163265" to="3009163264" priority="6" type="highway.tertiary" numLanes="1" speed="22.22" disallow="tram rail_urban rail rail_electric ship"/>
    <edge id="-327199417" from="3009144522" to="2614492897" priority="7" type="highway.secondary" numLanes="2" speed="27.78" shape="1997.27,2989.23 2049.13,2956.48 2075.41,2930.93 2087.82,2891.97" disallow="tram rail_urban rail rail_electric ship"/>
    <edge id="-336674190" from="3437297233" to="3437297234" priority="4" type="highway.residential" numLanes="1" speed="13.89" shape="1664.60,4234.62 1671.48,4110.49 1664.47,4026.71" disallow="tram rail_urban rail rail_electric ship"/>
    <edge id="-336675922#0" from="2613601278" to="1471100885" priority="6" type="highway.tertiary" numLanes="1" speed="22.22" disallow="tram rail_urban rail rail_electric ship"/>
    <edge id="-336675922#1" from="2614552632" to="2613601278" priority="6" type="highway.tertiary" numLanes="1" speed="22.22" disallow="tram rail_urban rail rail_electric ship"/>
    <edge id="-336675922#2" from="2614495595" to="2614552632" priority="6" type="highway.tertiary" numLanes="1" speed="22.22" disallow="tram rail_urban rail rail_electric ship"/>
    <edge id="-336675922#3" from="2614495597" to="2614495595" priority="6" type="highway.tertiary" numLanes="1" speed="22.22" disallow="tram rail_urban rail rail_electric ship"/>
    <edge id="-336675922#4" from="2614495600" to="2614495597" priority="6" type="highway.tertiary" numLanes="1" speed="22.22" disallow="tram rail_urban rail rail_electric ship"/>
    <edge id="-336675922#5" from="2614492895" to="2614495600" priority="6" type="highway.tertiary" numLanes="1" speed="22.22" disallow="tram rail_urban rail rail_electric ship"/>
    <edge id="-336675922#6" from="3437318418" to="2614492895" priority="6" type="highway.tertiary" numLanes="1" speed="22.22" shape="2538.09,3010.69 2725.90,3033.05 2708.66,3110.30" disallow="tram rail_urban rail rail_electric ship"/>
    <edge id="-336675922#7" from="3437318419" to="3437318418" priority="6" type="highway.tertiary" numLanes="1" speed="22.22" disallow="tram rail_urban rail rail_electric ship"/>
    <edge id="-336675922#8" from="3437318420" to="3437318419" priority="6" type="highway.tertiary" numLanes="1" speed="22.22" disallow="tram rail_urban rail rail_electric ship"/>
    <edge id="-336675923" from="3437318421" to="3437318418" priority="4" type="highway.residential" numLanes="1" speed="13.89" disallow="tram rail_urban rail rail_electric ship"/>
    <edge id="-336675924" from="3437318419" to="2614495603" priority="4" type="highway.residential" numLanes="1" speed="13.89" disallow="tram rail_urban rail rail_electric ship"/>
    <edge id="-370660309" from="1361111340" to="3743556225" priority="9" type="highway.primary" numLanes="2" speed="27.78" shape="1176.58,0.00 1303.35,160.34 1436.25,336.22 1490.16,421.17 1557.03,607.79 1608.12,817.10 1654.07,1021.97 1704.12,1237.91 1753.22,1456.69 1822.77,1754.51 1875.44,1980.50 1899.81,2088.54 1926.13,2187.15" disallow="tram rail_urban rail rail_electric ship"/>
    <edge id="-370660311" from="3743556225" to="3743556226" priority="9" type="highway.primary" numLanes="2" speed="27.78" disallow="tram rail_urban rail rail_electric ship"/>
    <edge id="-370660357" from="3743556393" to="1361111478" priority="4" type="highway.residential" numLanes="1" speed="13.89" shape="3595.72,4453.17 3608.99,4506.43 3600.96,4551.26 3603.36,4593.15 3596.75,4668.55 3555.36,4785.77 3539.38,4844.39 3526.15,4969.11" disallow="tram rail_urban rail rail_electric ship"/>
    <edge id="-371064286#0" from="3746862626" to="3746862620" priority="6" type="highway.tertiary" numLanes="1" speed="22.22" shape="468.10,3583.99 430.72,3555.05 358.70,3536.13 190.18,3485.73 0.00,3438.58" disallow="tram rail_urban rail rail_electric ship"/>
    <edge id="-371064286#1" from="3746862629" to="3746862626" priority="6" type="highway.tertiary" numLanes="1" speed="22.22" shape="584.44,3655.51 556.48,3647.11 468.10,3583.99" disallow="tram rail_urban rail rail_electric ship"/>
    <edge id="-371064286#2" from="3746865339" to="3746862629" priority="6" type="highway.tertiary" numLanes="1" speed="22.22" shape="697.84,3770.62 669.66,3728.02 614.46,3691.74 594.21,3671.54 584.44,3655.51" disallow="tram rail_urban rail rail_electric ship"/>
    <edge id="-371064286#3" from="3746862646" to="3746865339" priority="6" type="highway.tertiary" numLanes="1" speed="22.22" disallow="tram rail_urban rail rail_electric ship"/>
    <edge id="-371064289" from="3746862626" to="3746862434" priority="6" type="highway.tertiary" numLanes="1" speed="22.22" shape="468.10,3583.99 483.75,3444.90 434.69,3284.64 405.53,3204.54 376.29,3124.22 353.66,3062.06 449.59,3019.80 624.68,2924.85 642.20,2913.74 673.08,2857.46 713.34,2659.98 809.65,2431.29 884.75,2309.00 919.11,2273.59 937.30,2272.92 979.23,2292.49" disallow="tram rail_urban rail rail_electric ship"/>
    <edge id="-371064291" from="3746862648" to="3746862634" priority="4" type="highway.residential" numLanes="1" speed="13.89" disallow="tram rail_urban rail rail_electric ship"/>
    <edge id="-371064303#0" from="3746862648" to="3746862646" priority="4" type="highway.residential" numLanes="1" speed="13.89" disallow="tram rail_urban rail rail_electric ship"/>
    <edge id="-371064303#1" from="3746862681" to="3746862648" priority="4" type="highway.residential" numLanes="1" speed="13.89" shape="958.82,4329.57 887.09,4162.49 864.69,4095.59 809.09,3978.01 759.25,3871.83" disallow="tram rail_urban rail rail_electric ship"/>
    <edge id="-371064496" from="3746862629" to="3746865330" priority="4" type="highway.residential" numLanes="1" speed="13.89" shape="584.44,3655.51 615.12,3643.78 845.56,3534.33" disallow="tram rail_urban rail rail_electric ship"/>
    <edge id="-371064497" from="3746865339" to="3746865334" priority="4" type="highway.residential" numLanes="1" speed="13.89" shape="697.84,3770.62 899.72,3630.46 979.85,3592.77" disallow="tram rail_urban rail rail_electric ship"/>
    <edge id="-401433600" from="2613601370" to="2613601371" priority="6" type="highway.tertiary" numLanes="1" speed="22.22" disallow="tram rail_urban rail rail_electric ship"/>
    <edge id="-401433601#0" from="2613601372" to="2613601369" priority="6" type="highway.tertiary" numLanes="1" speed="22.22" disallow="tram rail_urban rail rail_electric ship"/>
    <edge id="-401433601#1" from="2613601368" to="2613601372" priority="6" type="highway.tertiary" numLanes="1" speed="22.22" disallow="tram rail_urban rail rail_electric ship"/>
    <edge id="-401433602#0" from="2614552635" to="2613601370" priority="6" type="highway.tertiary" numLanes="1" speed="22.22" disallow="tram rail_urban rail rail_electric ship"/>
    <edge id="-401433602#1" from="2613601369" to="2614552635" priority="6" type="highway.tertiary" numLanes="1" speed="22.22" disallow="tram rail_urban rail rail_electric ship"/>
    <edge id="121645907#0" from="1068901807" to="1361111478" priority="7" type="highway.secondary" numLanes="2" speed="27.78" shape="5546.19,5457.04 5485.86,5415.45 5406.38,5392.31 5364.02,5364.94 5300.15,5348.97 4959.80,5285.25 4428.75,5168.82 3526.15,4969.11" disallow="tram rail_urban rail rail_electric ship"/>
    <edge id="121645907#1" from="1361111478" to="3743556394" priority="7" type="highway.secondary" numLanes="2" speed="27.78" shape="3526.15,4969.11 3362.07,4935.36 3177.62,4882.39 2993.57,4816.61 2905.38,4781.03 2855.16,4764.61 2809.16,4727.73 2771.33,4692.47 2685.47,4561.08 2651.78,4486.00" disallow="tram rail_urban rail rail_electric ship"/>
    <edge id="121645907#2" from="3743556394" to="1361111333" priority="7" type="highway.secondary" numLanes="2" speed="27.78" disallow="tram rail_urban rail rail_electric ship"/>
    <edge id="121646136#0" from="3009144522" to="3746865334" name="Boundary Road" priority="7" type="highway.secondary" numLanes="2" speed="27.78" shape="1997.27,2989.23 1981.85,2991.75 1963.49,2991.35 1925.30,2987.27 1835.00,2975.03 1817.76,2965.15 1694.67,2818.12 1676.33,2807.86 1647.69,2802.33 1554.06,2802.51 1454.10,2826.22 1297.28,2872.75 1260.16,2913.80 1187.75,3003.26 1153.09,3054.75 1117.85,3074.33 1045.07,3110.72 1013.95,3141.01 990.51,3166.24 974.17,3205.64 963.93,3236.96 956.72,3286.48 954.52,3370.39 966.45,3513.97 979.85,3592.77" disallow="tram rail_urban rail rail_electric ship"/>
    <edge id="121646136#1" from="3746865334" to="3746862634" name="Boundary Road" priority="7" type="highway.secondary" numLanes="2" speed="27.78" shape="979.85,3592.77 995.51,3684.81 1002.99,3712.70" disallow="tram rail_urban rail rail_electric ship"/>