<?xml version="1.0" encoding="UTF-8"?>

<!-- generated on Wed May 20 11:27:14 2020 by SUMO netconvert Version 0.32.0
<?xml version="1.0" encoding="UTF-8"?>

<configuration xmlns:xsi="http://www.w3.org/2001/XMLSchema-instance" xsi:noNamespaceSchemaLocation="http://sumo.dlr.de/xsd/netconvertConfiguration.xsd">

    <input>
        <osm-files value="map.osm"/>
    </input>

    <output>
        <output-file value="map.net.xml"/>
        <output.street-names value="true"/>
    </output>

    <projection>
        <proj.utm value="true"/>
    </projection>

    <edge_removal>
        <remove-edges.by-vclass value="hov,taxi,bus,delivery,transport,lightrail,cityrail,rail_slow,rail_fast,motorcycle,bicycle,pedestrian"/>
        <remove-edges.isolated value="true"/>
    </edge_removal>

    <processing>
        <lefthand value="true"/>
    </processing>

</configuration>
-->

<net version="0.27" lefthand="true" xmlns:xsi="http://www.w3.org/2001/XMLSchema-instance" xsi:noNamespaceSchemaLocation="http://sumo.dlr.de/xsd/net_file.xsd">

    <location netOffset="-529315.64,-2464127.10" convBoundary="0.00,-0.00,5546.19,5457.04" origBoundary="87.133652,22.136887,87.386964,22.343510" projParameter="+proj=utm +zone=45 +ellps=WGS84 +datum=WGS84 +units=m +no_defs"/>

    <type id="highway.bridleway" priority="1" numLanes="1" speed="2.78" allow="pedestrian" oneway="1" width="2.00"/>
    <type id="highway.bus_guideway" priority="1" numLanes="1" speed="8.33" allow="bus" oneway="1"/>
    <type id="highway.cycleway" priority="1" numLanes="1" speed="5.56" allow="bicycle" oneway="0" width="1.00"/>
    <type id="highway.footway" priority="1" numLanes="1" speed="2.78" allow="pedestrian" oneway="1" width="2.00"/>
    <type id="highway.ford" priority="1" numLanes="1" speed="2.78" allow="army" oneway="0"/>
    <type id="highway.living_street" priority="3" numLanes="1" speed="2.78" disallow="tram rail_urban rail rail_electric ship" oneway="0"/>
    <type id="highway.motorway" priority="13" numLanes="2" speed="44.44" allow="private emergency authority army vip passenger hov taxi bus coach delivery truck trailer motorcycle evehicle custom1 custom2" oneway="1"/>
    <type id="highway.motorway_link" priority="12" numLanes="1" speed="22.22" allow="private emergency authority army vip passenger hov taxi bus coach delivery truck trailer motorcycle evehicle custom1 custom2" oneway="1"/>
    <type id="highway.path" priority="1" numLanes="1" speed="2.78" allow="bicycle pedestrian" oneway="1" width="2.00"/>
    <type id="highway.pedestrian" priority="1" numLanes="1" speed="2.78" allow="pedestrian" oneway="1" width="2.00"/>
    <type id="highway.primary" priority="9" numLanes="2" speed="27.78" disallow="tram rail_urban rail rail_electric ship" oneway="0"/>
    <type id="highway.primary_link" priority="8" numLanes="1" speed="22.22" disallow="tram rail_urban rail rail_electric ship" oneway="0"/>
    <type id="highway.raceway" priority="14" numLanes="2" speed="83.33" allow="vip" oneway="0"/>
    <type id="highway.residential" priority="4" numLanes="1" speed="13.89" disallow="tram rail_urban rail rail_electric ship" oneway="0"/>
    <type id="highway.secondary" priority="7" numLanes="2" speed="27.78" disallow="tram rail_urban rail rail_electric ship" oneway="0"/>
    <type id="highway.secondary_link" priority="6" numLanes="1" speed="22.22" disallow="tram rail_urban rail rail_electric ship" oneway="0"/>
    <type id="highway.service" priority="2" numLanes="1" speed="5.56" allow="delivery bicycle pedestrian" oneway="0"/>
    <type id="highway.services" priority="1" numLanes="1" speed="8.33" disallow="tram rail_urban rail rail_electric ship" oneway="0"/>
    <type id="highway.stairs" priority="1" numLanes="1" speed="1.39" allow="pedestrian" oneway="1" width="2.00"/>
    <type id="highway.step" priority="1" numLanes="1" speed="1.39" allow="pedestrian" oneway="1" width="2.00"/>
    <type id="highway.steps" priority="1" numLanes="1" speed="1.39" allow="pedestrian" oneway="1" width="2.00"/>
    <type id="highway.tertiary" priority="6" numLanes="1" speed="22.22" disallow="tram rail_urban rail rail_electric ship" oneway="0"/>
    <type id="highway.tertiary_link" priority="5" numLanes="1" speed="22.22" disallow="tram rail_urban rail rail_electric ship" oneway="0"/>
    <type id="highway.track" priority="1" numLanes="1" speed="5.56" disallow="tram rail_urban rail rail_electric ship" oneway="0"/>
    <type id="highway.trunk" priority="11" numLanes="2" speed="27.78" disallow="tram rail_urban rail rail_electric bicycle pedestrian ship" oneway="0"/>
    <type id="highway.trunk_link" priority="10" numLanes="1" speed="22.22" disallow="tram rail_urban rail rail_electric bicycle pedestrian ship" oneway="0"/>
    <type id="highway.unclassified" priority="5" numLanes="1" speed="13.89" disallow="tram rail_urban rail rail_electric ship" oneway="0"/>
    <type id="highway.unsurfaced" priority="1" numLanes="1" speed="8.33" disallow="tram rail_urban rail rail_electric ship" oneway="0"/>
    <type id="railway.light_rail" priority="15" numLanes="1" speed="27.78" allow="rail_urban" oneway="1"/>
    <type id="railway.preserved" priority="15" numLanes="1" speed="27.78" allow="rail" oneway="1"/>
    <type id="railway.rail" priority="15" numLanes="1" speed="83.33" allow="rail rail_electric" oneway="1"/>
    <type id="railway.subway" priority="15" numLanes="1" speed="27.78" allow="rail_urban" oneway="1"/>
    <type id="railway.tram" priority="15" numLanes="1" speed="13.89" allow="tram" oneway="1"/>

    <edge id=":1068901807_0" function="internal">
        <lane id=":1068901807_0_0" index="0" disallow="tram rail_urban rail rail_electric ship" speed="27.78" length="4.82" shape="5545.26,5458.40 5546.75,5458.42 5547.55,5457.98 5547.68,5457.06 5547.13,5455.68"/>
    </edge>
    <edge id=":1361111333_0" function="internal">
        <lane id=":1361111333_0_0" index="0" disallow="tram rail_urban rail rail_electric ship" speed="27.78" length="15.67" shape="2630.66,4436.39 2628.50,4432.32 2627.12,4429.49 2625.85,4426.60 2624.04,4422.36"/>
        <lane id=":1361111333_0_1" index="1" disallow="tram rail_urban rail rail_electric ship" speed="27.78" length="15.67" shape="2627.75,4437.96 2625.56,4433.81 2624.15,4430.92 2622.85,4427.98 2621.01,4423.66"/>
    </edge>
    <edge id=":1361111333_2" function="internal">
        <lane id=":1361111333_2_0" index="0" disallow="tram rail_urban rail rail_electric ship" speed="27.78" length="5.38" shape="2627.75,4437.96 2625.53,4435.20 2623.92,4434.32"/>
    </edge>
    <edge id=":1361111333_3" function="internal">
        <lane id=":1361111333_3_0" index="0" disallow="tram rail_urban rail rail_electric ship" speed="27.78" length="2.41" shape="2627.75,4437.96 2626.44,4437.26 2625.52,4437.29"/>
    </edge>
    <edge id=":1361111333_11" function="internal">
        <lane id=":1361111333_11_0" index="0" speed="27.78" length="10.69" shape="2623.92,4434.32 2622.41,4433.51 2618.40,4432.90 2613.50,4433.37"/>
    </edge>
    <edge id=":1361111333_12" function="internal">
        <lane id=":1361111333_12_0" index="0" speed="27.78" length="2.41" shape="2625.52,4437.29 2624.99,4438.04 2624.85,4439.52"/>
    </edge>
    <edge id=":1361111333_4" function="internal">
        <lane id=":1361111333_4_0" index="0" disallow="tram rail_urban rail rail_electric ship" speed="27.78" length="7.74" shape="2614.72,4439.86 2617.41,4439.51 2619.51,4439.61 2621.02,4440.13 2621.94,4441.09"/>
    </edge>
    <edge id=":1361111333_5" function="internal">
        <lane id=":1361111333_5_0" index="0" disallow="tram rail_urban rail rail_electric ship" speed="27.78" length="17.74" shape="2614.11,4436.62 2618.87,4434.99 2621.60,4432.29 2622.32,4428.51 2621.01,4423.66"/>
    </edge>
    <edge id=":1361111333_6" function="internal">
        <lane id=":1361111333_6_0" index="0" disallow="tram rail_urban rail rail_electric ship" speed="27.78" length="4.82" shape="2614.11,4436.62 2615.18,4435.58 2615.43,4434.69 2614.87,4433.95 2613.50,4433.37"/>
    </edge>
    <edge id=":1361111333_7" function="internal">
        <lane id=":1361111333_7_0" index="0" disallow="tram rail_urban rail rail_electric ship" speed="27.78" length="5.29" shape="2614.95,4426.27 2615.34,4427.72 2615.12,4428.84 2614.31,4429.65 2612.89,4430.13"/>
    </edge>
    <edge id=":1361111333_8" function="internal">
        <lane id=":1361111333_8_0" index="0" disallow="tram rail_urban rail rail_electric ship" speed="27.78" length="16.25" shape="2614.95,4426.27 2616.86,4430.75 2618.20,4433.80 2619.67,4436.79 2621.94,4441.09"/>
        <lane id=":1361111333_8_1" index="1" disallow="tram rail_urban rail rail_electric ship" speed="27.78" length="16.25" shape="2617.98,4424.97 2619.86,4429.36 2621.17,4432.36 2622.61,4435.30 2624.85,4439.52"/>
    </edge>
    <edge id=":1361111333_10" function="internal">
        <lane id=":1361111333_10_0" index="0" disallow="tram rail_urban rail rail_electric ship" speed="27.78" length="2.41" shape="2617.98,4424.97 2619.23,4425.78 2620.15,4425.83"/>
    </edge>
    <edge id=":1361111333_13" function="internal">
        <lane id=":1361111333_13_0" index="0" speed="27.78" length="2.41" shape="2620.15,4425.83 2620.74,4425.12 2621.01,4423.66"/>
    </edge>
    <edge id=":1361111340_0" function="internal">
        <lane id=":1361111340_0_0" index="0" disallow="tram rail_urban rail rail_electric ship" speed="27.78" length="4.82" shape="1177.88,-1.02 1176.46,-1.48 1175.56,-1.29 1175.17,-0.46 1175.29,1.02"/>
    </edge>
    <edge id=":1361111478_0" function="internal">
        <lane id=":1361111478_0_0" index="0" disallow="tram rail_urban rail rail_electric ship" speed="20.84" length="5.12" shape="3525.39,4960.58 3525.04,4961.96 3524.33,4962.85 3523.27,4963.26 3521.85,4963.17"/>
    </edge>
    <edge id=":1361111478_1" function="internal">
        <lane id=":1361111478_1_0" index="0" disallow="tram rail_urban rail rail_electric ship" speed="20.84" length="12.95" shape="3525.39,4960.58 3525.27,4964.95 3525.96,4968.25 3527.44,4970.46 3529.73,4971.59"/>
    </edge>
    <edge id=":1361111478_2" function="internal">
        <lane id=":1361111478_2_0" index="0" disallow="tram rail_urban rail rail_electric ship" speed="13.89" length="4.82" shape="3525.39,4960.58 3526.08,4961.90 3526.86,4962.40 3527.72,4962.08 3528.67,4960.93"/>
    </edge>
    <edge id=":1361111478_3" function="internal">
        <lane id=":1361111478_3_0" index="0" disallow="tram rail_urban rail rail_electric ship" speed="20.84" length="5.44" shape="3531.15,4965.15 3529.93,4964.65 3529.10,4963.78 3528.69,4962.54 3528.67,4960.93"/>
    </edge>
    <edge id=":1361111478_4" function="internal">
        <lane id=":1361111478_4_0" index="0" disallow="tram rail_urban rail rail_electric ship" speed="27.78" length="9.49" shape="3531.15,4965.15 3521.85,4963.17"/>
        <lane id=":1361111478_4_1" index="1" disallow="tram rail_urban rail rail_electric ship" speed="27.78" length="9.49" shape="3530.44,4968.37 3521.19,4966.40"/>
    </edge>
    <edge id=":1361111478_6" function="internal">
        <lane id=":1361111478_6_0" index="0" disallow="tram rail_urban rail rail_electric ship" speed="27.78" length="2.41" shape="3530.44,4968.37 3529.05,4968.91 3528.47,4969.62"/>
    </edge>
    <edge id=":1361111478_11" function="internal">
        <lane id=":1361111478_11_0" index="0" speed="27.78" length="2.41" shape="3528.47,4969.62 3528.70,4970.52 3529.73,4971.59"/>
    </edge>
    <edge id=":1361111478_7" function="internal">
        <lane id=":1361111478_7_0" index="0" disallow="tram rail_urban rail rail_electric ship" speed="27.78" length="9.39" shape="3519.86,4972.87 3529.02,4974.81"/>
        <lane id=":1361111478_7_1" index="1" disallow="tram rail_urban rail rail_electric ship" speed="27.78" length="9.39" shape="3520.52,4969.64 3529.73,4971.59"/>
    </edge>
    <edge id=":1361111478_9" function="internal">
        <lane id=":1361111478_9_0" index="0" disallow="tram rail_urban rail rail_electric ship" speed="20.84" length="4.69" shape="3520.52,4969.64 3523.68,4969.64 3525.00,4968.85"/>
    </edge>
    <edge id=":1361111478_10" function="internal">
        <lane id=":1361111478_10_0" index="0" disallow="tram rail_urban rail rail_electric ship" speed="27.78" length="2.41" shape="3520.52,4969.64 3521.90,4969.08 3522.47,4968.35"/>
    </edge>
    <edge id=":1361111478_12" function="internal">
        <lane id=":1361111478_12_0" index="0" speed="20.84" length="9.08" shape="3525.00,4968.85 3526.10,4968.19 3527.76,4965.29 3528.67,4960.93"/>
    </edge>
    <edge id=":1361111478_13" function="internal">
        <lane id=":1361111478_13_0" index="0" speed="27.78" length="2.41" shape="3522.47,4968.35 3522.23,4967.46 3521.19,4966.40"/>
    </edge>
    <edge id=":1471040640_0" function="internal">
        <lane id=":1471040640_0_0" index="0" disallow="tram rail_urban rail rail_electric ship" speed="25.00" length="4.13" shape="2453.63,4122.12 2450.86,4125.18"/>
    </edge>
    <edge id=":1471040640_1" function="internal">
        <lane id=":1471040640_1_0" index="0" disallow="tram rail_urban rail rail_electric ship" speed="27.78" length="2.41" shape="2453.46,4125.41 2452.18,4126.17 2451.72,4126.97"/>
    </edge>
    <edge id=":1471040640_5" function="internal">
        <lane id=":1471040640_5_0" index="0" speed="27.78" length="2.41" shape="2451.72,4126.97 2452.09,4127.82 2453.28,4128.71"/>
    </edge>
    <edge id=":1471040640_2" function="internal">
        <lane id=":1471040640_2_0" index="0" disallow="tram rail_urban rail rail_electric ship" speed="25.00" length="3.64" shape="2450.44,4128.45 2453.11,4132.00"/>
        <lane id=":1471040640_2_1" index="1" disallow="tram rail_urban rail rail_electric ship" speed="25.00" length="3.64" shape="2450.44,4128.45 2453.28,4128.71"/>
    </edge>
    <edge id=":1471040640_4" function="internal">
        <lane id=":1471040640_4_0" index="0" disallow="tram rail_urban rail rail_electric ship" speed="22.22" length="2.41" shape="2450.44,4128.45 2451.78,4127.79 2452.29,4127.03"/>
    </edge>
    <edge id=":1471040640_6" function="internal">
        <lane id=":1471040640_6_0" index="0" speed="22.22" length="2.41" shape="2452.29,4127.03 2451.99,4126.15 2450.86,4125.18"/>
    </edge>
    <edge id=":1471100885_0" function="internal">
        <lane id=":1471100885_0_0" index="0" disallow="tram rail_urban rail rail_electric ship" speed="22.22" length="5.21" shape="2623.04,3859.43 2622.69,3860.74 2621.96,3861.64 2620.86,3862.13 2619.37,3862.20"/>
    </edge>
    <edge id=":1471100885_1" function="internal">
        <lane id=":1471100885_1_0" index="0" disallow="tram rail_urban rail rail_electric ship" speed="22.22" length="9.57" shape="2623.04,3859.43 2621.82,3868.92"/>
    </edge>
    <edge id=":1471100885_2" function="internal">
        <lane id=":1471100885_2_0" index="0" disallow="tram rail_urban rail rail_electric ship" speed="22.22" length="5.11" shape="2623.04,3859.43 2623.14,3862.21 2624.11,3864.32"/>
    </edge>
    <edge id=":1471100885_3" function="internal">
        <lane id=":1471100885_3_0" index="0" disallow="tram rail_urban rail rail_electric ship" speed="22.22" length="2.41" shape="2623.04,3859.43 2623.73,3860.74 2624.51,3861.24"/>
    </edge>
    <edge id=":1471100885_16" function="internal">
        <lane id=":1471100885_16_0" index="0" speed="22.22" length="5.13" shape="2624.11,3864.32 2625.94,3865.76 2628.64,3866.53"/>
    </edge>
    <edge id=":1471100885_17" function="internal">
        <lane id=":1471100885_17_0" index="0" speed="22.22" length="2.41" shape="2624.51,3861.24 2625.37,3860.92 2626.32,3859.77"/>
    </edge>
    <edge id=":1471100885_4" function="internal">
        <lane id=":1471100885_4_0" index="0" disallow="tram rail_urban rail rail_electric ship" speed="22.22" length="5.04" shape="2629.09,3863.27 2627.76,3862.89 2626.85,3862.18 2626.37,3861.14 2626.32,3859.77"/>
    </edge>
    <edge id=":1471100885_5" function="internal">
        <lane id=":1471100885_5_0" index="0" disallow="tram rail_urban rail rail_electric ship" speed="22.22" length="9.78" shape="2629.09,3863.27 2619.37,3862.20"/>
    </edge>
    <edge id=":1471100885_6" function="internal">
        <lane id=":1471100885_6_0" index="0" disallow="tram rail_urban rail rail_electric ship" speed="22.22" length="10.48" shape="2629.09,3863.27 2626.28,3863.29 2624.13,3864.24 2622.64,3866.12 2621.82,3868.92"/>
    </edge>
    <edge id=":1471100885_7" function="internal">
        <lane id=":1471100885_7_0" index="0" disallow="tram rail_urban rail rail_electric ship" speed="22.22" length="4.82" shape="2629.09,3863.27 2627.75,3863.91 2627.23,3864.67 2627.52,3865.55 2628.64,3866.53"/>
    </edge>
    <edge id=":1471100885_8" function="internal">
        <lane id=":1471100885_8_0" index="0" disallow="tram rail_urban rail rail_electric ship" speed="22.22" length="5.19" shape="2625.09,3869.41 2625.49,3867.99 2626.22,3867.04 2627.27,3866.55 2628.64,3866.53"/>
    </edge>
    <edge id=":1471100885_9" function="internal">
        <lane id=":1471100885_9_0" index="0" disallow="tram rail_urban rail rail_electric ship" speed="22.22" length="9.71" shape="2625.09,3869.41 2626.32,3859.77"/>
    </edge>
    <edge id=":1471100885_10" function="internal">
        <lane id=":1471100885_10_0" index="0" disallow="tram rail_urban rail rail_electric ship" speed="22.22" length="5.47" shape="2625.09,3869.41 2625.10,3866.46 2624.16,3864.28 2624.04,3864.19"/>
    </edge>
    <edge id=":1471100885_11" function="internal">
        <lane id=":1471100885_11_0" index="0" disallow="tram rail_urban rail rail_electric ship" speed="22.22" length="2.41" shape="2625.09,3869.41 2624.45,3868.06 2623.70,3867.53"/>
    </edge>
    <edge id=":1471100885_18" function="internal">
        <lane id=":1471100885_18_0" index="0" speed="22.22" length="5.19" shape="2624.04,3864.19 2622.24,3862.85 2619.37,3862.20"/>
    </edge>
    <edge id=":1471100885_19" function="internal">
        <lane id=":1471100885_19_0" index="0" speed="22.22" length="2.41" shape="2623.70,3867.53 2622.82,3867.82 2621.82,3868.92"/>
    </edge>
    <edge id=":1471100885_12" function="internal">
        <lane id=":1471100885_12_0" index="0" disallow="tram rail_urban rail rail_electric ship" speed="22.22" length="5.08" shape="2619.10,3865.49 2620.47,3865.80 2621.38,3866.48 2621.83,3867.52 2621.82,3868.92"/>
    </edge>
    <edge id=":1471100885_13" function="internal">
        <lane id=":1471100885_13_0" index="0" disallow="tram rail_urban rail rail_electric ship" speed="22.22" length="9.59" shape="2619.10,3865.49 2628.64,3866.53"/>
    </edge>
    <edge id=":1471100885_14" function="internal">
        <lane id=":1471100885_14_0" index="0" disallow="tram rail_urban rail rail_electric ship" speed="22.22" length="10.45" shape="2619.10,3865.49 2622.01,3865.33 2624.19,3864.33 2625.62,3862.48 2626.32,3859.77"/>
    </edge>
    <edge id=":1471100885_15" function="internal">
        <lane id=":1471100885_15_0" index="0" disallow="tram rail_urban rail rail_electric ship" speed="22.22" length="4.82" shape="2619.10,3865.49 2620.40,3864.76 2620.88,3863.98 2620.54,3863.12 2619.37,3862.20"/>
    </edge>
    <edge id=":1471100888_0" function="internal">
        <lane id=":1471100888_0_0" index="0" disallow="tram rail_urban rail rail_electric ship" speed="18.05" length="0.10" shape="3576.74,3997.39 3576.65,3997.38"/>
    </edge>
    <edge id=":1471100888_1" function="internal">
        <lane id=":1471100888_1_0" index="0" disallow="tram rail_urban rail rail_electric ship" speed="13.89" length="2.41" shape="3576.74,3997.39 3575.36,3997.96 3574.80,3998.69"/>
    </edge>
    <edge id=":1471100888_4" function="internal">
        <lane id=":1471100888_4_0" index="0" speed="13.89" length="2.41" shape="3574.80,3998.69 3575.04,3999.58 3576.10,4000.63"/>
    </edge>
    <edge id=":1471100888_2" function="internal">
        <lane id=":1471100888_2_0" index="0" disallow="tram rail_urban rail rail_electric ship" speed="18.05" length="0.10" shape="3576.18,4000.64 3576.10,4000.63"/>
    </edge>
    <edge id=":1471100888_3" function="internal">
        <lane id=":1471100888_3_0" index="0" disallow="tram rail_urban rail rail_electric ship" speed="22.22" length="2.41" shape="3576.18,4000.64 3577.53,4000.00 3578.05,3999.25"/>
    </edge>
    <edge id=":1471100888_5" function="internal">
        <lane id=":1471100888_5_0" index="0" speed="22.22" length="2.41" shape="3578.05,3999.25 3577.76,3998.37 3576.65,3997.38"/>
    </edge>
    <edge id=":1471100893_0" function="internal">
        <lane id=":1471100893_0_0" index="0" disallow="tram rail_urban rail rail_electric ship" speed="22.22" length="4.82" shape="3201.04,4265.71 3202.39,4265.08 3202.92,4264.32 3202.63,4263.45 3201.53,4262.45"/>
    </edge>
    <edge id=":1471104302_0" function="internal">
        <lane id=":1471104302_0_0" index="0" disallow="tram rail_urban rail rail_electric ship" speed="13.89" length="4.82" shape="3610.69,3832.89 3612.01,3833.58 3612.93,3833.54 3613.46,3832.79 3613.59,3831.31"/>
    </edge>
    <edge id=":1471104306_0" function="internal">
        <lane id=":1471104306_0_0" index="0" disallow="tram rail_urban rail rail_electric ship" speed="13.89" length="23.52" shape="3618.13,3976.57 3615.98,3981.09 3612.09,3986.52 3607.67,3991.60 3603.94,3995.08"/>
    </edge>
    <edge id=":1471104306_1" function="internal">
        <lane id=":1471104306_1_0" index="0" disallow="tram rail_urban rail rail_electric ship" speed="13.89" length="25.35" shape="3618.13,3976.57 3616.50,3981.68 3613.89,3988.51 3611.08,3995.26 3608.84,4000.14"/>
    </edge>
    <edge id=":1471104306_2" function="internal">
        <lane id=":1471104306_2_0" index="0" disallow="tram rail_urban rail rail_electric ship" speed="13.89" length="17.81" shape="3618.13,3976.57 3617.37,3982.33 3618.53,3985.20 3621.63,3985.17 3626.65,3982.24"/>
    </edge>
    <edge id=":1471104306_3" function="internal">
        <lane id=":1471104306_3_0" index="0" disallow="tram rail_urban rail rail_electric ship" speed="13.89" length="4.82" shape="3618.13,3976.57 3618.64,3977.97 3619.35,3978.56 3620.25,3978.35 3621.34,3977.34"/>
    </edge>
    <edge id=":1471104306_4" function="internal">
        <lane id=":1471104306_4_0" index="0" disallow="tram rail_urban rail rail_electric ship" speed="13.89" length="7.03" shape="3624.70,3979.58 3622.72,3980.73 3621.50,3980.74 3621.04,3979.61 3621.34,3977.34"/>
    </edge>
    <edge id=":1471104306_5" function="internal">
        <lane id=":1471104306_5_0" index="0" disallow="tram rail_urban rail rail_electric ship" speed="13.89" length="25.91" shape="3624.70,3979.58 3603.94,3995.08"/>
    </edge>
    <edge id=":1471104306_6" function="internal">
        <lane id=":1471104306_6_0" index="0" disallow="tram rail_urban rail rail_electric ship" speed="13.89" length="26.05" shape="3624.70,3979.58 3620.84,3983.41 3616.10,3989.29 3611.70,3995.46 3608.84,4000.14"/>
    </edge>
    <edge id=":1471104306_7" function="internal">
        <lane id=":1471104306_7_0" index="0" disallow="tram rail_urban rail rail_electric ship" speed="13.89" length="2.41" shape="3624.70,3979.58 3624.19,3980.97 3624.34,3981.88"/>
    </edge>
    <edge id=":1471104306_16" function="internal">
        <lane id=":1471104306_16_0" index="0" speed="13.89" length="2.41" shape="3624.34,3981.88 3625.16,3982.31 3626.65,3982.24"/>
    </edge>
    <edge id=":1471104306_8" function="internal">
        <lane id=":1471104306_8_0" index="0" disallow="tram rail_urban rail rail_electric ship" speed="13.89" length="24.52" shape="3611.79,4001.63 3614.49,3997.13 3618.55,3991.37 3622.94,3985.89 3626.65,3982.24"/>
    </edge>
    <edge id=":1471104306_9" function="internal">
        <lane id=":1471104306_9_0" index="0" disallow="tram rail_urban rail rail_electric ship" speed="13.89" length="26.12" shape="3611.79,4001.63 3614.07,3996.64 3616.97,3989.64 3619.67,3982.56 3621.34,3977.34"/>
    </edge>
    <edge id=":1471104306_10" function="internal">
        <lane id=":1471104306_10_0" index="0" disallow="tram rail_urban rail rail_electric ship" speed="13.89" length="24.87" shape="3611.79,4001.63 3615.13,3993.63 3614.94,3989.87 3611.21,3990.35 3603.94,3995.08"/>
    </edge>
    <edge id=":1471104306_11" function="internal">
        <lane id=":1471104306_11_0" index="0" disallow="tram rail_urban rail rail_electric ship" speed="13.89" length="4.82" shape="3611.79,4001.63 3611.61,4000.15 3611.06,3999.41 3610.14,3999.41 3608.84,4000.14"/>
    </edge>
    <edge id=":1471104306_12" function="internal">
        <lane id=":1471104306_12_0" index="0" disallow="tram rail_urban rail rail_electric ship" speed="13.89" length="9.23" shape="3605.93,3997.71 3608.63,3995.96 3610.01,3995.78 3610.08,3997.17 3608.84,4000.14"/>
    </edge>
    <edge id=":1471104306_13" function="internal">
        <lane id=":1471104306_13_0" index="0" disallow="tram rail_urban rail rail_electric ship" speed="13.89" length="25.86" shape="3605.93,3997.71 3626.65,3982.24"/>
    </edge>
    <edge id=":1471104306_14" function="internal">
        <lane id=":1471104306_14_0" index="0" disallow="tram rail_urban rail rail_electric ship" speed="13.89" length="25.72" shape="3605.93,3997.71 3609.85,3993.94 3614.69,3988.22 3619.00,3982.15 3621.34,3977.34"/>
    </edge>
    <edge id=":1471104306_15" function="internal">
        <lane id=":1471104306_15_0" index="0" disallow="tram rail_urban rail rail_electric ship" speed="13.89" length="2.41" shape="3605.93,3997.71 3606.42,3996.31 3606.25,3995.40"/>
    </edge>
    <edge id=":1471104306_17" function="internal">
        <lane id=":1471104306_17_0" index="0" speed="13.89" length="2.41" shape="3606.25,3995.40 3605.42,3994.99 3603.94,3995.08"/>
    </edge>
    <edge id=":1471110146_0" function="internal">
        <lane id=":1471110146_0_0" index="0" disallow="tram rail_urban rail rail_electric ship" speed="13.89" length="4.82" shape="3846.64,3879.55 3847.11,3878.14 3846.93,3877.23 3846.10,3876.83 3844.61,3876.94"/>
    </edge>
    <edge id=":1471110173_0" function="internal">
        <lane id=":1471110173_0_0" index="0" disallow="tram rail_urban rail rail_electric ship" speed="13.89" length="4.82" shape="3838.53,3827.31 3839.04,3825.91 3838.89,3825.00 3838.07,3824.58 3836.58,3824.65"/>
    </edge>
    <edge id=":1471110179_0" function="internal">
        <lane id=":1471110179_0_0" index="0" disallow="tram rail_urban rail rail_electric ship" speed="13.89" length="4.82" shape="3534.62,4141.03 3534.20,4142.45 3534.41,4143.35 3535.26,4143.72 3536.74,4143.56"/>
    </edge>
    <edge id=":1471110182_0" function="internal">
        <lane id=":1471110182_0_0" index="0" disallow="tram rail_urban rail rail_electric ship" speed="13.89" length="4.88" shape="3648.89,4028.71 3647.74,4029.36 3646.64,4029.53 3645.56,4029.20 3644.53,4028.39"/>
    </edge>
    <edge id=":1471110182_1" function="internal">
        <lane id=":1471110182_1_0" index="0" disallow="tram rail_urban rail rail_electric ship" speed="13.89" length="8.78" shape="3648.89,4028.71 3646.84,4030.31 3645.54,4031.56 3644.58,4033.08 3643.57,4035.45"/>
    </edge>
    <edge id=":1471110182_2" function="internal">
        <lane id=":1471110182_2_0" index="0" disallow="tram rail_urban rail rail_electric ship" speed="13.89" length="2.41" shape="3648.89,4028.71 3648.41,4030.12 3648.59,4031.02"/>
    </edge>
    <edge id=":1471110182_9" function="internal">
        <lane id=":1471110182_9_0" index="0" speed="13.89" length="2.41" shape="3648.59,4031.02 3649.42,4031.42 3650.91,4031.31"/>
    </edge>
    <edge id=":1471110182_3" function="internal">
        <lane id=":1471110182_3_0" index="0" disallow="tram rail_urban rail rail_electric ship" speed="13.89" length="6.98" shape="3646.64,4036.65 3647.45,4034.77 3648.23,4033.57 3649.28,4032.58 3650.91,4031.31"/>
    </edge>
    <edge id=":1471110182_4" function="internal">
        <lane id=":1471110182_4_0" index="0" disallow="tram rail_urban rail rail_electric ship" speed="13.89" length="4.29" shape="3646.64,4036.65 3647.14,4034.52 3646.95,4032.43"/>
    </edge>
    <edge id=":1471110182_5" function="internal">
        <lane id=":1471110182_5_0" index="0" disallow="tram rail_urban rail rail_electric ship" speed="13.89" length="2.41" shape="3646.64,4036.65 3646.32,4035.20 3645.70,4034.51"/>
    </edge>
    <edge id=":1471110182_10" function="internal">
        <lane id=":1471110182_10_0" index="0" speed="13.89" length="4.75" shape="3646.95,4032.43 3646.08,4030.38 3644.53,4028.39"/>
    </edge>
    <edge id=":1471110182_11" function="internal">
        <lane id=":1471110182_11_0" index="0" speed="13.89" length="2.41" shape="3645.70,4034.51 3644.78,4034.60 3643.57,4035.45"/>
    </edge>
    <edge id=":1471110182_6" function="internal">
        <lane id=":1471110182_6_0" index="0" disallow="tram rail_urban rail rail_electric ship" speed="13.89" length="5.28" shape="3642.15,4030.67 3643.11,4031.88 3643.67,4033.08 3643.82,4034.27 3643.57,4035.45"/>
    </edge>
    <edge id=":1471110182_7" function="internal">
        <lane id=":1471110182_7_0" index="0" disallow="tram rail_urban rail rail_electric ship" speed="13.89" length="9.80" shape="3642.15,4030.67 3644.23,4032.31 3646.38,4032.96 3648.61,4032.63 3650.91,4031.31"/>
    </edge>
    <edge id=":1471110182_8" function="internal">
        <lane id=":1471110182_8_0" index="0" disallow="tram rail_urban rail rail_electric ship" speed="13.89" length="4.82" shape="3642.15,4030.67 3643.60,4030.99 3644.48,4030.72 3644.79,4029.85 3644.53,4028.39"/>
    </edge>
    <edge id=":2613601269_0" function="internal">
        <lane id=":2613601269_0_0" index="0" disallow="tram rail_urban rail rail_electric ship" speed="25.00" length="13.14" shape="2487.17,4123.39 2485.58,4123.36 2483.60,4121.86 2481.24,4118.87 2478.49,4114.40"/>
    </edge>
    <edge id=":2613601269_1" function="internal">